37

C         -1.44200        0.94930        3.23980
C         -1.77190        0.08200        2.00180
C         -0.67910       -0.96250        1.65460
C         -0.60110        2.21060        2.94420
C          0.69690        1.95850        2.16650
C         -0.38730       -1.11320        0.15200
C          0.87200       -1.94210       -0.17540
C          1.52890        3.21260        1.86280
C          2.55050        2.98470        0.72230
C          2.19840       -1.36630        0.35930
C          2.65750       -0.04440       -0.30540
C          3.66610        0.68290        0.54810
C          3.60440        1.94100        1.00720
H         -2.37600        1.27550        3.71620
H         -0.92600        0.32730        3.98560
H         -2.72750       -0.43200        2.16440
H         -1.93980        0.74540        1.14080
H         -0.95850       -1.94120        2.06920
H          0.24460       -0.68420        2.16910
H         -1.22040        2.91460        2.36780
H         -0.37400        2.71610        3.89390
H          1.32380        1.23480        2.70300
H          0.43920        1.48650        1.21130
H         -1.25250       -1.57270       -0.34600
H         -0.29100       -0.11330       -0.29360
H          0.94390       -2.06190       -1.26590
H          0.74530       -2.95520        0.23230
H          0.86330        4.03380        1.56060
H          2.04560        3.55390        2.77100
H          1.99570        2.72920       -0.18870
H          3.05630        3.93780        0.51250
H          2.98930       -2.11760        0.23080
H          2.11750       -1.20900        1.44130
H          3.09160       -0.27950       -1.28930
H          1.79470        0.59940       -0.49880
H          4.52430        0.07970        0.85190
H          4.40980        2.27190        1.66540
