35
TAXYIA
N     -0.798700     3.022300     2.286300
C     -2.141700     2.599800     1.824600
C     -1.881400     2.471900     0.328000
O     -0.456200     2.338600     0.193300
C      0.160400     2.752000     1.308800
C     -3.288000     3.573900     2.148200
C     -2.989100     5.004700     1.827900
C     -4.549100     3.068600     1.428100
O      1.348000     2.828100     1.388300
C     -0.557400     3.203200     3.650300
O     -1.471400     3.061900     4.408000
C      0.815800     3.671400     4.095500
C      0.976800     3.464400     5.615200
C      1.021000     5.108300     3.594000
O     -0.027200     5.983200     3.927600
C      2.331800     5.698800     4.018100
F      2.354300     6.082400     5.302700
F      3.353200     4.864700     3.844700
F      2.624900     6.799000     3.293600
H     -2.245600     1.598800     2.252100
H     -2.582500     1.691400    -0.111600
H     -2.025300     3.133100    -0.249600
H     -3.466200     3.163000     3.039600
H     -2.882000     5.063800     0.884700
H     -3.600200     5.572800     2.391200
H     -2.163400     5.242200     2.332700
H     -4.517700     3.332800     0.264000
H     -4.737000     1.904500     1.814700
H     -5.201700     4.032400     1.480000
H      1.289100     3.343800     3.775100
H      0.706300     2.769000     5.590900
H      0.272800     4.165100     5.907900
H      1.690700     3.891800     5.925600
H      1.001700     5.000500     2.435400
H     -0.378000     6.254700     4.905000
