224
1xv4.cif
N          1.14500        0.11200       -0.04200
C          1.93700        0.20100       -1.29500
C          2.15600       -1.20700       -1.93500
O          2.46300       -2.18800       -1.24900
C          3.26900        0.92600       -0.96600
C          4.07200        1.44300       -2.17600
C          4.90200        0.57800       -2.89900
C          4.00100        2.78700       -2.55100
C          5.65000        1.04800       -3.97400
C          4.75100        3.26100       -3.62600
C          5.57700        2.38900       -4.33400
H          1.63900       -0.47800        0.63700
H          0.25300       -0.36500       -0.21300
H          1.35600        0.83700       -1.99200
H          3.08200        1.77400       -0.27700
H          3.89700        0.24400       -0.36400
H          4.96600       -0.46200       -2.62400
H          3.36800        3.47400       -2.00500
H          6.28600        0.37000       -4.52600
H          4.69700        4.30200       -3.90800
H          6.16600        2.75400       -5.16300
N          2.07300       -1.28800       -3.27600
C          2.26000       -2.56900       -4.01900
C          3.76500       -2.88900       -4.35100
O          4.18900       -2.89700       -5.51100
C          1.31200       -2.49500       -5.25500
C          0.91500       -3.86300       -5.87100
C         -0.06000       -4.72100       -5.04500
O         -0.56100       -4.35600       -3.98500
N         -0.37900       -5.90100       -5.51500
H          1.92100       -0.39700       -3.75900
H          1.89200       -3.40300       -3.38700
H          0.36900       -1.96700       -5.00300
H          1.77900       -1.86300       -6.03600
H          0.44300       -3.67400       -6.85400
H          1.82700       -4.44900       -6.09500
H          0.02800       -6.17600       -6.41200
H         -1.05400       -6.40700       -4.93500
N          4.56600       -3.17700       -3.30900
C          5.99900       -3.56600       -3.42800
C          6.22200       -5.11300       -3.37100
O          5.41500       -5.86700       -2.81500
C          6.82300       -2.79900       -2.34100
C          6.37700       -2.81100       -0.85800
C          5.85900       -3.90900       -0.13000
C          6.29800       -1.73300        0.01300
N          5.43600       -3.53900        1.15800
C          5.69600       -2.18200        1.21600
C          6.65300       -0.36700       -0.14200
C          5.39600       -1.26100        2.24700
C          6.36400        0.52000        0.89600
C          5.73000        0.08300        2.06600
H          4.13700       -3.03800       -2.38600
H          6.38400       -3.22600       -4.41200
H          7.86300       -3.15600       -2.37100
H          6.90900       -1.74900       -2.67500
H          5.73100       -4.90300       -0.52900
H          4.96000       -4.11900        1.85700
H          7.11600       -0.00600       -1.05000
H          4.91000       -1.59000        3.15400
H          6.61300        1.56600        0.78400
H          5.50000        0.79500        2.84500
N          7.37600       -5.59200       -3.87500
C          7.73200       -7.04600       -3.82400
C          8.39900       -7.51800       -2.47200
O          9.39100       -8.25400       -2.47500
C          8.59300       -7.32800       -5.09600
C          8.54000       -8.78800       -5.62300
C          7.27800       -9.15600       -6.42500
O          6.17800       -8.65300       -6.21900
N          7.38500      -10.06000       -7.36900
H          7.97900       -4.90000       -4.33100
H          6.80100       -7.64000       -3.92400
H          8.31100       -6.66500       -5.94000
H          9.64600       -7.05700       -4.88200
H          9.43400       -8.95200       -6.25300
H          8.64700       -9.50400       -4.78700
H          8.31100      -10.46300       -7.53300
H          6.51800      -10.22000       -7.88900
N          7.83300       -7.11400       -1.30900
C          8.33100       -7.48200        0.06200
C          9.86800       -7.27600        0.37400
O         10.48400       -8.08500        1.07200
C          7.82600       -8.91800        0.40100
C          6.31000       -9.08900        0.67300
C          5.91400      -10.57700        0.66900
N          4.57600      -10.78000        1.28800
C          3.97500      -11.96300        1.43400
N          4.43300      -13.07700        0.91600
N          2.87400      -12.01900        2.12600
H          6.97100       -6.57700       -1.46800
H          7.82600       -6.79500        0.77100
H          8.16400       -9.59800       -0.40600
H          8.35700       -9.28300        1.30200
H          6.06800       -8.61100        1.64400
H          5.71000       -8.54500       -0.08400
H          5.92900      -10.94600       -0.37900
H          6.67400      -11.17100        1.21800
H          4.08600       -9.99900        1.73300
H          5.28900      -12.96100        0.37000
H          3.91100      -13.94200        1.06600
H          2.54100      -11.14600        2.54000
H          2.44200      -12.93800        2.23800
N         10.48600       -6.18500       -0.11700
C         11.95500       -5.93300        0.02400
C         12.26700       -4.39900        0.01200
O         12.96100       -3.87300       -0.86200
C         12.75700       -6.73500       -1.05300
C         13.21700       -8.12500       -0.60800
O         14.01100       -8.27400        0.31400
N         12.77400       -9.18000       -1.24600
H          9.85300       -5.52000       -0.56600
H         12.29100       -6.27700        1.02600
H         12.20400       -6.77200       -2.01200
H         13.69300       -6.20400       -1.30600
H         12.00800       -9.02900       -1.90900
H         13.10300      -10.06100       -0.84300
N         11.78600       -3.69300        1.04500
C         12.15400       -2.27000        1.32800
C         13.34400       -2.11300        2.33800
O         14.29400       -1.38100        2.06400
C         10.90500       -1.39300        1.69900
C          9.96400       -2.02000        2.76200
C         10.11100       -0.96400        0.44100
C          9.02800       -1.04700        3.49400
H         10.99900       -4.14300        1.52000
H         12.53200       -1.81900        0.40400
H         11.30500       -0.46200        2.13500
H          9.38200       -2.82200        2.27600
H         10.57300       -2.53600        3.52000
H          9.33400       -0.21900        0.68900
H         10.75700       -0.49000       -0.32100
H          9.60400       -1.81800       -0.04500
H          8.41000       -1.57100        4.24700
H          9.58000       -0.24700        4.01900
H          8.32800       -0.55800        2.79600
N         13.23900       -2.75500        3.51300
C         14.09400       -2.56900        4.72200
C         13.47900       -3.45300        5.85900
O         14.12000       -4.40300        6.31100
C         14.27400       -1.08000        5.16700
C         15.60100       -0.41700        4.72700
C         16.73800       -0.47500        5.76900
N         17.50000       -1.75900        5.76400
C         18.63200       -1.98600        5.09100
N         19.13200       -1.15500        4.21000
N         19.27500       -3.09600        5.31800
H         12.46000       -3.41300        3.52100
H         15.08600       -3.00700        4.50600
H         13.42800       -0.48200        4.77400
H         14.16200       -0.97200        6.26400
H         15.93900       -0.81200        3.74900
H         15.37700        0.64600        4.51900
H         17.40700        0.39600        5.63000
H         16.31400       -0.31000        6.78000
H         17.22900       -2.52500        6.38800
H         18.55600       -0.32600        4.05200
H         19.99900       -1.40500        3.73200
H         18.88100       -3.72600        6.01900
H         20.14500       -3.24100        4.80300
N         12.23900       -3.14300        6.29700
C         11.42700       -4.02100        7.17900
C          9.95800       -4.07800        6.61100
O          9.72200       -4.64800        5.54300
C         11.57300       -3.53300        8.65500
C         12.89300       -3.86500        9.38500
C         12.65900       -4.19200       10.87300
C         12.12100       -5.62000       11.08400
N         11.85400       -5.86200       12.51400
H         11.82600       -2.35300        5.79500
H         11.79100       -5.06700        7.13100
H         11.38200       -2.44300        8.72700
H         10.74400       -3.98600        9.23100
H         13.42700       -4.70200        8.89500
H         13.58000       -3.00200        9.29100
H         13.61100       -4.06800       11.41900
H         11.96300       -3.44800       11.31200
H         11.18900       -5.78000       10.50700
H         12.84500       -6.36300       10.69600
H         11.54700       -6.82900       12.67600
H         12.70900       -5.74700       13.07100
N          8.98600       -3.49200        7.33100
C          7.53700       -3.42500        6.94700
C          7.02600       -1.94300        7.08000
O          6.42800       -1.41600        6.14000
C          6.69000       -4.47500        7.76300
C          5.16000       -4.36400        7.55300
C          7.06700       -5.94500        7.45800
H          9.34600       -3.11800        8.21600
H          7.42400       -3.67300        5.87400
H          6.87900       -4.30300        8.84100
H          4.76800       -3.37500        7.85600
H          4.87000       -4.51500        6.49600
H          4.60200       -5.10800        8.15500
H          6.90300       -6.20400        6.39500
H          8.13000       -6.15300        7.67700
H          6.48200       -6.66200        8.06500
N          7.25000       -1.29000        8.24100
C          6.84400        0.11500        8.52300
C          7.35600        1.20600        7.52100
O          6.57200        2.01700        7.03200
C          7.29600        0.38600        9.99100
C          6.72900        1.64200       10.68800
C          5.28000        1.45800       11.17800
N          4.86500        2.64500       11.96600
C          3.70100        2.77000       12.61700
N          2.74900        1.86100       12.61500
N          3.47300        3.85700       13.30700
H          7.67700       -1.88300        8.95600
H          5.73700        0.14500        8.49000
H          7.07500       -0.48300       10.64300
H          8.40100        0.46100       10.01100
H          7.39000        1.86500       11.55100
H          6.81900        2.52000       10.01700
H          4.59900        1.30600       10.31500
H          5.20800        0.54100       11.79900
H          5.48400        3.44500       12.09500
H          2.92300        1.00800       12.07500
H          1.90500        2.07700       13.15300
H          4.17300        4.60400       13.35200
H          2.56300        3.88100       13.77800
N          8.64100        1.29000        7.19400
H          9.25000        0.54600        7.54900
H          8.87300        2.00200        6.49400
