224
1xv4_2.xyz
N          3.37800        1.89200       -3.46300
C          4.30000        1.20700       -4.41300
C          4.07400       -0.34000       -4.51700
O          3.97000       -0.87000       -5.62400
C          5.77300        1.60100       -4.07300
C          6.71000        1.75000       -5.28600
C          7.16000        0.63000       -5.99500
C          7.15200        3.02300       -5.66700
C          8.04000        0.78100       -7.06600
C          8.03200        3.17200       -6.73700
C          8.47500        2.05300       -7.43400
H          3.58500        1.63300       -2.49200
H          2.40500        1.61300       -3.63400
H          4.05700        1.61700       -5.41300
H          5.79600        2.54900       -3.49700
H          6.21600        0.87800       -3.36100
H          6.83600       -0.36300       -5.71500
H          6.82100        3.90300       -5.13400
H          8.38400       -0.08400       -7.61200
H          8.36900        4.15800       -7.02500
H          9.15500        2.17200       -8.26500
N          4.05600       -1.06200       -3.37600
C          4.01400       -2.55600       -3.31100
C          5.15500       -3.32700       -4.07200
O          4.92100       -4.21700       -4.89400
C          2.58200       -3.11900       -3.55700
C          2.32100       -4.46400       -2.82000
C          1.20900       -5.33200       -3.41600
O          1.30200       -5.82700       -4.53300
N          0.15200       -5.60400       -2.68900
H          4.06900       -0.47500       -2.53600
H          4.21900       -2.76700       -2.24300
H          1.80900       -2.38900       -3.24600
H          2.43300       -3.23100       -4.65000
H          3.22900       -5.09400       -2.84300
H          2.14400       -4.26700       -1.74500
H          0.11000       -5.21300       -1.74600
H         -0.50300       -6.24700       -3.14400
N          6.40900       -3.05400       -3.69000
C          7.61800       -3.81300       -4.13400
C          7.81300       -5.22500       -3.46300
O          8.88800       -5.53100       -2.93800
C          8.83500       -2.84100       -3.94700
C          8.98100       -2.04200       -2.62300
C          8.72200       -2.51100       -1.31300
C          9.17700       -0.67900       -2.48500
N          8.71200       -1.47000       -0.36700
C          8.99100       -0.34000       -1.11800
C          9.52500        0.32000       -3.42900
C          9.14800        0.99800       -0.69200
C          9.67700        1.63300       -2.98500
C          9.49300        1.96700       -1.63800
H          6.50800       -2.22400       -3.09700
H          7.53600       -4.01600       -5.22100
H          9.77400       -3.39500       -4.11900
H          8.80600       -2.12100       -4.78700
H          8.47300       -3.53300       -1.08100
H          8.43200       -1.50200        0.62000
H          9.68400        0.07700       -4.47000
H          9.02200        1.26500        0.34700
H          9.94800        2.40200       -3.69400
H          9.64200        2.98800       -1.32500
N          6.76100       -6.07800       -3.45800
C          6.72800       -7.39200       -2.72400
C          7.16300       -7.43400       -1.20600
O          7.45900       -8.50700       -0.67800
C          7.39600       -8.48800       -3.61800
C          6.49700       -9.09500       -4.73100
C          5.49600      -10.15800       -4.24700
O          5.83900      -11.11800       -3.56500
N          4.23700      -10.05900       -4.59900
H          5.95600       -5.71500       -3.98900
H          5.65800       -7.66500       -2.65100
H          8.32000       -8.08100       -4.07400
H          7.77400       -9.32300       -2.99600
H          5.99200       -8.28700       -5.29500
H          7.14300       -9.59400       -5.47600
H          3.98500       -9.31000       -5.24900
H          3.67100      -10.85800       -4.30200
N          7.17100       -6.28500       -0.49100
C          7.81300       -6.12500        0.85200
C          9.32700       -6.53800        0.88000
O          9.67200       -7.65000        1.28000
C          6.96100       -6.76500        1.98400
C          5.58200       -6.10400        2.23500
C          4.77800       -6.83400        3.32300
N          3.47200       -6.14800        3.52500
C          2.49200       -6.57600        4.32300
N          2.56500       -7.67400        5.03500
N          1.40300       -5.86700        4.39900
H          6.91100       -5.48200       -1.06900
H          7.80200       -5.03900        1.07000
H          6.83700       -7.84300        1.76000
H          7.54600       -6.73200        2.92200
H          5.73100       -5.04100        2.51300
H          5.00500       -6.09200        1.28900
H          4.62800       -7.89100        3.01700
H          5.35800       -6.85600        4.26900
H          3.26200       -5.27500        3.03400
H          3.44200       -8.18500        4.92400
H          1.76700       -7.93700        5.61600
H          1.36100       -5.01600        3.83500
H          0.66400       -6.21600        5.01300
N         10.21700       -5.63900        0.42100
C         11.68200       -5.92000        0.30600
C         12.54900       -4.64900        0.59100
O         13.36500       -4.66200        1.51500
C         11.96700       -6.62000       -1.05500
C         13.39000       -7.17500       -1.20000
O         13.91700       -7.85900       -0.33000
N         14.06000       -6.91500       -2.29500
H          9.78300       -4.80800        0.01600
H         11.96500       -6.63600        1.10200
H         11.28800       -7.48600       -1.16800
H         11.70700       -5.94500       -1.89300
H         13.57900       -6.39500       -3.03300
H         14.99300       -7.33800       -2.31700
N         12.35400       -3.54700       -0.16100
C         12.97300       -2.20800        0.12800
C         12.64000       -1.65600        1.56400
O         13.53100       -1.17300        2.26700
C         12.58800       -1.23300       -1.04100
C         13.15100       -1.63700       -2.43300
C         12.83500        0.27800       -0.79400
C         14.66700       -1.48300       -2.66300
H         11.60700       -3.63700       -0.85300
H         14.07000       -2.31500        0.07600
H         11.49500       -1.31000       -1.13800
H         12.86000       -2.67700       -2.66900
H         12.61400       -1.04500       -3.18600
H         13.89800        0.49900       -0.59100
H         12.52400        0.88900       -1.66200
H         12.24900        0.65300        0.06500
H         15.26300       -2.07200       -1.94300
H         14.95400       -1.82100       -3.67600
H         14.99000       -0.42800       -2.57700
N         11.36400       -1.73600        1.98200
C         10.93200       -1.42400        3.36500
C         10.30100       -2.69900        4.01900
O          9.08200       -2.89800        3.99900
C          9.98100       -0.20400        3.25900
C          9.51900        0.40900        4.60500
C         10.26400        1.68300        5.05200
N         11.57000        1.39300        5.70700
C         12.47100        2.31500        6.06000
N         12.34700        3.59300        5.79300
N         13.53200        1.92900        6.70800
H         10.77000       -2.24800        1.32300
H         11.79500       -1.11100        3.98700
H         10.44300        0.58500        2.63100
H          9.08300       -0.50900        2.68600
H          8.45300        0.67700        4.47500
H          9.49800       -0.35600        5.40800
H         10.38900        2.35500        4.17800
H          9.61800        2.23400        5.76500
H         11.81100        0.43900        5.99000
H         11.50200        3.83500        5.27300
H         13.08800        4.23100        6.09000
H         13.61500        0.93100        6.91300
H         14.20400        2.65300        6.97100
N         11.14900       -3.54100        4.63100
C         10.70200       -4.65200        5.52500
C         10.32400       -4.16200        6.96700
O         10.58400       -3.01700        7.35900
C         11.83500       -5.72300        5.54600
C         11.96100       -6.60000        4.27700
C         10.99900       -7.80700        4.18400
C         11.28200       -8.96600        5.15900
N         10.47000       -8.88600        6.39200
H         12.13700       -3.38700        4.41000
H          9.79300       -5.12100        5.09600
H         12.80500       -5.23200        5.74900
H         11.71400       -6.40200        6.41100
H         11.83300       -5.96700        3.37800
H         13.00000       -6.97400        4.19400
H          9.94100       -7.48200        4.22200
H         11.11400       -8.22100        3.16600
H         11.06900       -9.92600        4.64900
H         12.36000       -9.00500        5.41100
H          9.47800       -9.02800        6.16700
H         10.70900       -9.66000        7.02500
N          9.68100       -5.05200        7.75100
C          9.23900       -4.78100        9.15500
C          8.26600       -3.54600        9.31700
O          7.57500       -3.17600        8.36000
C         10.40100       -5.00000       10.20000
C         11.17800       -6.33200       10.06100
C         11.42900       -3.85100       10.31800
H          9.78500       -6.02200        7.44600
H          8.54400       -5.61600        9.36700
H          9.88900       -5.08100       11.17000
H         10.50100       -7.20500       10.01600
H         11.79900       -6.35500        9.14600
H         11.86100       -6.50400       10.91400
H         12.04200       -3.75000        9.40300
H         10.95100       -2.87000       10.48500
H         12.13100       -4.00800       11.15900
N          8.16400       -2.91500       10.50600
C          7.44100       -1.62400       10.66600
C          8.36200       -0.37900       10.45000
O          8.04700        0.47800        9.62400
C          6.66500       -1.62300       12.01000
C          5.79200       -0.37800       12.32500
C          4.55400       -0.13500       11.43100
N          4.91000        0.43400       10.10100
C          4.09300        0.49100        9.04200
N          2.81900        0.16200        9.07000
N          4.56800        0.89700        7.89400
H          8.73100       -3.30700       11.26100
H          6.66400       -1.57300        9.88000
H          6.02300       -2.52500       12.06100
H          7.38600       -1.75300       12.84000
H          5.43100       -0.50400       13.36400
H          6.42900        0.52700       12.37900
H          3.98600       -1.08200       11.32700
H          3.86900        0.56600       11.95000
H          5.86400        0.73000        9.87400
H          2.43800       -0.14200        9.97100
H          2.29800        0.25800        8.19400
H          5.55500        1.15500        7.80000
H          3.88500        0.91200        7.13000
N          9.45700       -0.19600       11.18100
H          9.69000       -0.92800       11.86000
H         10.00900        0.64300       10.97100
