          95
  coordinates output from Opt
H     -4.196878    -4.267507    -3.145247
C     -3.908739    -4.977245    -2.392147
C     -3.162830    -6.814993    -0.463961
C     -3.371297    -4.517585    -1.189033
C     -4.085104    -6.332485    -2.623462
C     -3.716675    -7.257583    -1.656845
C     -2.985791    -5.459163    -0.233888
H     -4.506426    -6.664807    -3.553070
H     -3.848287    -8.307561    -1.835108
H     -2.516465    -5.126552     0.671928
H     -2.855047    -7.524073     0.280973
C     -3.209160    -3.063179    -0.968110
C     -3.346383    -2.452695     0.202014
H     -2.980554    -2.485516    -1.844335
H     -3.638964    -3.045597     1.050891
C     -3.191468    -0.956201     0.494429
C     -4.425084    -0.537955     1.364275
H     -4.317984    -0.981491     2.346483
H     -4.403104     0.534374     1.504310
C     -5.800265    -0.925540     0.807291
H     -6.575788    -0.611568     1.499577
H     -5.902653    -1.995972     0.670910
H     -6.017368    -0.454974    -0.144427
C     -3.226903    -0.188784    -0.811529
H     -4.215493    -0.082691    -1.210617
C     -2.208838     0.306538    -1.504008
C     -2.420499     1.073550    -2.798649
H     -2.053501     0.477487    -3.627901
H     -1.792664     1.960041    -2.773178
C     -3.854984     1.505265    -3.114558
H     -4.508194     0.656343    -3.276880
H     -3.868200     2.101586    -4.020475
H     -4.273071     2.105074    -2.314522
C     -0.809979     0.250078    -0.938170
H     -0.591744     1.259909    -0.600046
C     -1.802271    -0.689158     1.295407
C     -1.614589    -1.899675     2.234338
O     -1.040483    -2.930493     1.943234
O     -2.188802    -1.766675     3.445560
C     -2.104427    -2.851535     4.407749
H     -2.458106    -3.754635     3.931128
H     -1.064432    -3.001735     4.663429
C     -2.919390    -2.507307     5.610680
H     -2.899164    -3.267226     6.373618
C     -3.623129    -1.405079     5.795319
H     -4.179550    -1.252159     6.700104
H     -3.663497    -0.628262     5.059777
C     -1.792657     0.578993     2.205373
H     -0.896303     0.520975     2.815318
H     -2.606574     0.492427     2.906034
C     -1.841955     1.981497     1.579143
H     -0.888110     2.281046     1.171151
H     -2.089276     2.697929     2.356307
H     -2.589747     2.066392     0.805580
C     -0.655444    -0.727567     0.247892
H     -0.686908    -1.727794    -0.167746
C      0.417252    -0.174691    -1.787308
C      1.547940    -0.227822    -0.699190
H      2.181009    -1.086654    -0.909168
C      0.815815    -0.458943     0.669204
H      0.840245     0.477508     1.221503
C      2.446152     1.026044    -0.689017
H      1.856064     1.913144    -0.483660
H      2.878448     1.163035    -1.672281
C      3.595670     0.981421     0.314426
H      4.186585     0.077101     0.186510
H      3.239415     1.010894     1.331411
O      4.437686     2.133445     0.177989
C      5.488092     2.080463    -0.789420
H      5.087184     1.908465    -1.782385
H      6.139870     1.242817    -0.549512
C      6.255108     3.374459    -0.763991
C      7.746687     5.733741    -0.718604
C      6.472982     4.056901     0.434156
C      6.789507     3.900363    -1.926998
C      7.538781     5.073919    -1.916583
C      7.208687     5.223252     0.458816
H      6.045590     3.673986     1.338319
H      6.624429     3.402490    -2.864991
H      7.936213     5.452710    -2.836098
H      7.378487     5.758421     1.371097
O      8.464803     6.898888    -0.595125
C      9.052538     7.535822    -1.728827
H      9.540617     8.415495    -1.346099
H      8.297319     7.823670    -2.449164
H      9.782428     6.892643    -2.203507
H      0.235957    -1.192604    -2.123447
C      0.770396     0.649402    -3.028935
H      1.738703     0.350301    -3.416717
H      0.810091     1.713332    -2.825766
H      0.056464     0.490573    -3.824024
C      1.511492    -1.529174     1.519434
H      2.576218    -1.328502     1.572122
H      1.375307    -2.516533     1.100651
H      1.146205    -1.548134     2.537515
 END
